79
Coordinates from ORCA-job 69_r2scan/69_r2scan
  C   -1.56134424812424     -2.27081524876035     -0.08908242145622
  C   -2.05738606567206     -3.50009702850005      0.30490199438943
  C   -1.50515188279649     -4.12695511028367      1.41769971400243
  C   -0.47457468509105     -3.49840979545929      2.09914914746902
  H   -3.99483606105207      2.90477241857256     -0.27794504314124
  H   -4.37086271920418      3.27648280608292      2.14373025408049
  H   -2.72324105946692      2.32591202260315      3.78376990255340
  H   -0.77182470843041      1.05571839136884      2.92149143449408
  H   1.00082783616561      2.94487680380095     -1.31962794760693
  H   4.20034282939077      4.60860670309794      1.02234986566873
  H   4.08272098683617      2.60784639415377      2.47923796259332
  H   3.82202631352085      0.80223463870123      3.68361859586714
  H   3.20304392538024     -2.06062549807853     -4.61394720978958
  H   2.90450601956780     -1.52638222034582     -0.35747351539764
  C   -0.00607168290358     -2.26144982712250      1.66774726363949
  C   -2.18815223975045      1.78393163963563      0.01916473346316
  C   -3.29621331317537      2.50716185869755      0.44940458226964
  C   -3.50703421679696      2.71514270847953      1.80383316828828
  C   -2.59623735935249      2.18990167020773      2.71525110283930
  C   -1.50705501605797      1.48021424304708      2.24376779291756
  C   1.69951824445925      2.90606892992819     -0.48891967404710
  C   2.60688266711429      3.92456346877633     -0.26167024940538
  C   3.47869038467322      3.82468776486020      0.81808671759388
  C   3.41232468893046      2.70501628837821      1.63277896917277
  C   2.48357485557591      1.70359352427404      1.36697715711418
  C   2.33828662976683      0.48271338570456      2.16575022053343
  C   3.06741507504679      0.13064305857567      3.29050005475325
  C   2.80742050998518     -1.07868828580694      3.95653935076359
  C   1.79160734046896     -1.90302453455276      3.44445836394575
  C   1.07546232749592     -1.51829846985418      2.32172126980209
  H   1.13447398465122     -0.71855716573125     -4.85844264320822
  C   -1.88855555164213      1.49739252485758     -1.38743364555022
  C   -2.61473554973903      1.90653645758127     -2.49499026125356
  C   -2.19425870407233      1.55696961196026     -3.78906638547694
  C   0.90860626418325     -0.40146488625862     -2.74631336878953
  C   -1.02504970636600      0.78837789052283     -3.91301295117746
  C   -0.31885899568204      0.39967696191731     -2.78534470240432
  C   1.54604105269010     -0.90977827816633     -3.87384086315957
  C   2.70307169015286     -1.66122189532760     -3.73783324486043
  C   3.20913463896122     -1.89388444369099     -2.46281962582382
  C   2.54369477290337     -1.36949214617853     -1.36978195011319
  H   -1.96312909100319     -1.74692452947979     -0.95150860918511
  H   -1.87284843664190     -5.09227659481774      1.74943096875395
  H   -0.03130494183600     -3.97065971980818      2.96860955898102
  H   -3.49486509374298      2.52720444650292     -2.37126255376035
  H   -0.69603560587169      0.47593325784817     -4.89747121257014
  N   -1.28899369810180      1.27186933431228      0.92913997824046
  N   1.62326135929954      1.81241580166501      0.29681227325558
  H   4.11145629079491     -2.47616278651990     -2.31093205500219
  H   -2.86536570039649     -3.95559099967883     -0.25725409756050
  N   1.35551049484056     -0.33858866765250      1.69896742733098
  N   1.41719927964943     -0.63713900051037     -1.48813321688487
  H   2.62477536233234      4.78247209362179     -0.92501801791206
  H   1.59296597973402     -2.85806036105962      3.91717553130371
  N   -0.75524303040298      0.75656222350147     -1.54435040802807
  N   -0.55786155114219     -1.64927387404317      0.56374946962727
  Os  0.29920014748286      0.20233672325593      0.07560125696928
  C   3.56980089031785     -1.46739084252459      5.14795787723113
  C   2.95959549096447     -2.18811027986972      6.18473436674748
  C   4.92435733230553     -1.12663204091344      5.27653987893256
  C   3.67216033101330     -2.55447093062966      7.31506063948418
  C   5.65015422590568     -1.49633681109943      6.39752598138609
  C   5.01808763552244     -2.20841430712703      7.41456110400780
  H   1.90183761124850     -2.43101707933683      6.13527343534177
  H   5.43701342669599     -0.60318577398124      4.47434861579511
  H   3.18761993363652     -3.09535255313301      8.12048242296179
  H   6.70201961505374     -1.24539359002760      6.48007922824571
  C   -2.95032508406526      1.98246824780191     -4.97192404757920
  C   -2.28964011283912      2.30731058870250     -6.16576564661908
  C   -4.34916613425749      2.07515168419944     -4.93352294570279
  C   -2.99762730452179      2.71825073347229     -7.28380855063500
  C   -5.06888381181917      2.47357177957011     -6.04869542082810
  C   -4.38712728788866      2.79717399367363     -7.21985374117363
  H   -1.20448194080382      2.28453805389094     -6.21567914314312
  H   -4.89282003990026      1.79089537615618     -4.03676092709304
  H   -2.47807801074462      2.98704803189496     -8.19698226124184
  H   -6.15170493260125      2.52390955077377     -6.01671552226336
  Br  5.99857338873239     -2.71126543588284      8.95210545870443
  Br  -5.36065779349396      3.35264752058417     -8.74395217567089
